ieee14/ieee14_out.txt
ANDES 0.5.11.post1.dev0+g67dbf0e
Copyright (C) 2015-2018 Hantao Cui

ANDES comes with ABSOLUTELY NO WARRANTY
Use this software AT YOUR OWN RISK

Case file: ieee14.dm
report Time: 10/22/2018 12:21:58 PM

Power flow method: NR
Number of iterations: 0.0
Flat-start: No

SUMMARY:
Buses                     14
Generators                 5
Committed Gens             5
Loads                     11
Shunts                     1
Lines                     20
Transformers               4
Areas                      1

EXTENDED SUMMARY:
                      P (pu)        Q (pu)

Generation             2.724         0.785
Load                    2.59         0.735
Shunt Inj                  0         0.212
Losses                0.1339         0.262
Line Charging        0.06364        0.2726

BUS DATA:
                      Vm(pu)       Va(deg)       Pg (pu)       Qg (pu)       Pl (pu)       Ql (pu)

1.0-Bus 1               1.06    -3.018e-12         2.324       -0.1689             0             0
2.0-Bus 2              1.045        -4.981           0.4         0.424         0.217         0.127
3.0-Bus 3               1.01        -12.72     -1.11e-16        0.2339         0.942          0.19
4.0-Bus 4              1.019        -10.32    -8.882e-16     4.233e-16         0.478        -0.039
5.0-Bus 5               1.02        -8.783     1.665e-16    -2.359e-16         0.076         0.016
6.0-Bus 6               1.07        -14.22    -6.939e-17        0.1224         0.112         0.075
7.0-Bus 7              1.062        -13.37    -4.362e-16    -1.835e-15             0             0
8.0-Bus 8               1.09        -13.37    -3.469e-17        0.1736             0             0
9.0-Bus 9              1.056        -14.95     1.443e-15     5.551e-16         0.295      -0.04601
10.0-Bus 10            1.051         -15.1    -2.262e-15     -3.22e-15          0.09         0.058
11.0-Bus 11            1.057         -14.8     4.857e-16    -1.426e-15         0.035         0.018
12.0-Bus 12            1.055        -15.08     1.651e-15     1.464e-15         0.061         0.016
13.0-Bus 13             1.05        -15.16     1.943e-16     1.207e-15         0.135         0.058
14.0-Bus 14            1.036        -16.04             0     2.498e-16         0.149          0.05

LINE DATA:
                    From Bus        To Bus   P From (pu)   Q From (pu)     P To (pu)      Q To(pu)    P Loss(pu)    Q Loss(pu)

Line_1                     1             2         1.568       -0.2039        -1.525        0.2766       0.04295       0.07264
Line_10                    5             6        0.4406        0.1282       -0.4406      -0.08395     1.757e-11       0.04429
Line_11                    6            11       0.07341       0.03472      -0.07286      -0.03358     0.0005471      0.001146
Line_12                    6            12       0.07782       0.02492       -0.0771      -0.02343     0.0007168      0.001492
Line_13                    6            13        0.1774       0.07171       -0.1753      -0.06754      0.002115      0.004166
Line_14                    7             8     2.535e-12       -0.1691    -3.469e-17        0.1736     2.535e-12      0.004466
Line_15                    7             9        0.2809       0.05797       -0.2809      -0.04995     7.293e-12      0.008023
Line_16                    9            10       0.05239       0.04306      -0.05226      -0.04271     0.0001311     0.0003482
Line_17                    9            14       0.09438       0.03666      -0.09321      -0.03417      0.001168      0.002484
Line_18                   10            11      -0.03774      -0.01529       0.03786       0.01558     0.0001231     0.0002881
Line_19                   12            13        0.0161       0.00743      -0.01604     -0.007374      6.24e-05     5.645e-05
Line_2                     1             5        0.7555       0.03504       -0.7279        0.0258       0.02764       0.06084
Line_20                   13            14       0.05632       0.01692      -0.05579      -0.01583     0.0005358      0.001091
Line_3                     2             3        0.7319       0.03565       -0.7087       0.01584        0.0232       0.05149
Line_4                     2             4        0.5614      -0.02288       -0.5446       0.03394       0.01677       0.01106
Line_5                     2             5        0.4151      0.007627       -0.4061      -0.01634      0.009023     -0.008712
Line_6                     3             4       -0.2333       0.02809         0.237      -0.05421      0.003713      -0.02612
Line_7                     4             5       -0.6122        0.1567        0.6174       -0.1537      0.005165       0.00299
Line_8                     4             7        0.2809      -0.09421       -0.2809        0.1111      8.09e-12       0.01692
Line_9                     4             9        0.1609     -0.003212       -0.1609       0.01625     2.344e-12       0.01304

OTHER ALGEBRAIC VARIABLES:
                            

Q PV Bus 2             0.424
Q PV Bus 3            0.2339
Q PV Bus 6            0.1224
Q PV Bus 8            0.1736
Q SW Bus 1           -0.1689
P SW Bus 1             2.324

